Circuit: * C:\Users\peter\Nextcloud\PlatformIO\Projects\NMEA2000_engine_electrical_nodemcu-32s\Circuits\Alternator-rpm.asc

.OP point found by inspection.

Date: Sat Dec 31 10:01:20 2022
Total elapsed time: 0.068 seconds.

tnom = 27
temp = 27
method = modified trap
totiter = 3433
traniter = 3433
tranpoints = 1365
accept = 855
rejected = 510
matrix size = 15
fillins = 0
solver = Normal
Matrix Compiler1: 622 bytes object code size  0.3/0.1/[0.1]
Matrix Compiler2: 1.01 KB object code size  0.1/0.1/[0.1]

